
**** 02/17/17 13:12:08 ****** PSpice Lite (October 2012) ****** ID# 10813 ****

 ** Profile: "SCHEMATIC1-er"  [ C:\USERS\SANDIPAN CHAKRABORTY\GOOGLE DRIVE\AIC_Lab\WeinsBridge-PSpiceFiles\SCHEMATIC1\er.sim ] 


 ****     CIRCUIT DESCRIPTION


******************************************************************************




** Creating circuit file "er.cir" 
** WARNING: THIS AUTOMATICALLY GENERATED FILE MAY BE OVERWRITTEN BY SUBSEQUENT SIMULATIONS

*Libraries: 
* Profile Libraries :
* Local Libraries :
* From [PSPICE NETLIST] section of C:\SPB_Data\cdssetup\OrCAD_PSpice/16.6.0/PSpice.ini file:
.lib "nomd.lib" 

*Analysis directives: 
.TRAN  0 30ms 5ms 0.0001 SKIPBP 
.OPTIONS ADVCONV
.PROBE64 V(alias(*)) I(alias(*)) W(alias(*)) D(alias(*)) NOISE(alias(*)) 
.INC "..\SCHEMATIC1.net" 



**** INCLUDING SCHEMATIC1.net ****
* source WEINSBRIDGE
X_U1         N00279 N00328 N000852 N000853 N00337 uA741
R_R1         N00279 0  3.3k TC=0,0 
C_C1         0 N00279  0.047u  TC=0,0 
C_C2         N00307 N00279  0.047u  TC=0,0 
R_R2         N00307 N00337  3.3k TC=0,0 
R_R3         N00328 N00337  22k TC=0,0 
V_V1         N000852 0 12Vdc
V_V2         0 N000853 12Vdc
R_R4         0 N00328  10k TC=0,0 

**** RESUMING er.cir ****
.END

**** 02/17/17 13:12:08 ****** PSpice Lite (October 2012) ****** ID# 10813 ****

 ** Profile: "SCHEMATIC1-er"  [ C:\USERS\SANDIPAN CHAKRABORTY\GOOGLE DRIVE\AIC_Lab\WeinsBridge-PSpiceFiles\SCHEMATIC1\er.sim ] 


 ****     Diode MODEL PARAMETERS


******************************************************************************




               X_U1.dx         
          IS  800.000000E-18 
          RS    1            


**** 02/17/17 13:12:08 ****** PSpice Lite (October 2012) ****** ID# 10813 ****

 ** Profile: "SCHEMATIC1-er"  [ C:\USERS\SANDIPAN CHAKRABORTY\GOOGLE DRIVE\AIC_Lab\WeinsBridge-PSpiceFiles\SCHEMATIC1\er.sim ] 


 ****     BJT MODEL PARAMETERS


******************************************************************************




               X_U1.qx         
               NPN             
       LEVEL    1            
          IS  800.000000E-18 
          BF   93.75         
          NF    1            
          BR    1            
          NR    1            
         ISS    0            
          RE    0            
          RC    0            
         CJE    0            
         VJE     .75         
         CJC    0            
         VJC     .75         
         MJC     .33         
        XCJC    1            
         CJS    0            
         VJS     .75         
          KF    0            
          AF    1            
          CN    2.42         
           D     .87         



          JOB CONCLUDED

**** 02/17/17 13:12:08 ****** PSpice Lite (October 2012) ****** ID# 10813 ****

 ** Profile: "SCHEMATIC1-er"  [ C:\USERS\SANDIPAN CHAKRABORTY\GOOGLE DRIVE\AIC_Lab\WeinsBridge-PSpiceFiles\SCHEMATIC1\er.sim ] 


 ****     JOB STATISTICS SUMMARY


******************************************************************************



  Total job time (using Solver 1)   =         .11
