
**** 01/27/17 12:53:18 ****** PSpice Lite (October 2012) ****** ID# 10813 ****

 ** Profile: "SCHEMATIC1-high pass"  [ C:\USERS\SANDIPAN CHAKRABORTY\GOOGLE DRIVE\AIC_Lab\AIC Expt 3-PSpiceFiles\SCHEMATIC1\high pass


 ****     CIRCUIT DESCRIPTION


******************************************************************************




** Creating circuit file "high pass.cir" 
** WARNING: THIS AUTOMATICALLY GENERATED FILE MAY BE OVERWRITTEN BY SUBSEQUENT SIMULATIONS

*Libraries: 
* Profile Libraries :
* Local Libraries :
* From [PSPICE NETLIST] section of C:\SPB_Data\cdssetup\OrCAD_PSpice/16.6.0/PSpice.ini file:
.lib "nomd.lib" 

*Analysis directives: 
.AC DEC 1 100 1Meg
.OPTIONS ADVCONV
.PROBE64 V(alias(*)) I(alias(*)) W(alias(*)) D(alias(*)) NOISE(alias(*)) 
.INC "..\SCHEMATIC1.net" 



**** INCLUDING SCHEMATIC1.net ****
* source AIC EXPT 3
E_U1         N00199 0 VALUE {LIMIT(V(0,0)*1E6,-15V,+15V)}
R_R1         0 0 20k
R_R2         0 0 10k
R_R3         0 N00199 10k
C_C1         0 0 0.01 TC=0
V_V1         0 0 DC 0Vdc AC 1Vac 

**** RESUMING "high pass.cir" ****
.END

ERROR(ORPSIM-15143): Voltage source and/or inductor loop involving V_V1. You may break the loop by adding a series resistance
