
**** 01/20/17 06:48:10 ****** PSpice Lite (October 2012) ****** ID# 10813 ****

 ** Profile: "SCHEMATIC1-sch1"  [ C:\Users\Sandipan Chakraborty\Google Drive\AIC_Lab\filter_diff-pspicefiles\schematic1\sch1.sim ] 


 ****     CIRCUIT DESCRIPTION


******************************************************************************




** Creating circuit file "sch1.cir" 
** WARNING: THIS AUTOMATICALLY GENERATED FILE MAY BE OVERWRITTEN BY SUBSEQUENT SIMULATIONS

*Libraries: 
* Profile Libraries :
* Local Libraries :
* From [PSPICE NETLIST] section of C:\SPB_Data\cdssetup\OrCAD_PSpice/16.6.0/PSpice.ini file:
.lib "nomd.lib" 

*Analysis directives: 
.AC DEC 10 10 1Meg
.OPTIONS ADVCONV
.PROBE64 V(alias(*)) I(alias(*)) W(alias(*)) D(alias(*)) NOISE(alias(*)) 
.INC "..\SCHEMATIC1.net" 



**** INCLUDING SCHEMATIC1.net ****
* source FILTER_DIFF
R_R1         N00904 N00892  1000000 TC=0,0 
V_V1         N00892 N00916 DC 0Vdc AC 5Vac 
C_C1         N00904 N00916  0.01u  TC=0,0 

**** RESUMING sch1.cir ****
.END

ERROR(ORPSIM-15142): Node N00904 is floating

ERROR(ORPSIM-15142): Node N00892 is floating

ERROR(ORPSIM-15142): Node N00916 is floating
