
**** 01/13/17 17:09:54 ****** PSpice Lite (October 2012) ****** ID# 10813 ****

 ** Profile: "SCHEMATIC1-wqeqwe"  [ C:\USERS\SANDIPAN CHAKRABORTY\GOOGLE DRIVE\AIC_Lab\filter-PSpiceFiles\SCHEMATIC1\wqeqwe.sim ] 


 ****     CIRCUIT DESCRIPTION


******************************************************************************




** Creating circuit file "wqeqwe.cir" 
** WARNING: THIS AUTOMATICALLY GENERATED FILE MAY BE OVERWRITTEN BY SUBSEQUENT SIMULATIONS

*Libraries: 
* Profile Libraries :
* Local Libraries :
* From [PSPICE NETLIST] section of C:\SPB_Data\cdssetup\OrCAD_PSpice/16.6.0/PSpice.ini file:
.lib "nomd.lib" 

*Analysis directives: 
.AC DEC 10 10 1M
--------------$
ERROR(ORPSIM-16103): Invalid value
.OPTIONS ADVCONV
.PROBE64 V(alias(*)) I(alias(*)) W(alias(*)) D(alias(*)) NOISE(alias(*)) 
.INC "..\SCHEMATIC1.net" 



**** INCLUDING SCHEMATIC1.net ****
* source FILTER
R_R1         0 N00136  56 TC=0,0 
C_C1         N00131 N00136  0.01u  TC=0,0 
V_V1         N00131 0 DC 0Vdc AC 5Vac 

**** RESUMING wqeqwe.cir ****
.END
