
**** 01/20/17 07:00:28 ****** PSpice Lite (October 2012) ****** ID# 10813 ****

 ** Profile: "SCHEMATIC1-wqeqwe"  [ C:\Users\Sandipan Chakraborty\Google Drive\AIC_Lab\filter-pspicefiles\schematic1\wqeqwe.sim ] 


 ****     CIRCUIT DESCRIPTION


******************************************************************************




** Creating circuit file "wqeqwe.cir" 
** WARNING: THIS AUTOMATICALLY GENERATED FILE MAY BE OVERWRITTEN BY SUBSEQUENT SIMULATIONS

*Libraries: 
* Profile Libraries :
* Local Libraries :
* From [PSPICE NETLIST] section of C:\SPB_Data\cdssetup\OrCAD_PSpice/16.6.0/PSpice.ini file:
.lib "nomd.lib" 

*Analysis directives: 
.AC DEC 10 10 100Meg
.OPTIONS ADVCONV
.PROBE64 V(alias(*)) I(alias(*)) W(alias(*)) D(alias(*)) NOISE(alias(*)) 
.INC "..\SCHEMATIC1.net" 



**** INCLUDING SCHEMATIC1.net ****
* source FILTER
R_R1         0 N00136  1Meg TC=0,0 
C_C1         N00131 N00136  0.01u  TC=0,0 
V_V1         N00131 0 DC 0Vdc AC 5Vac 

**** RESUMING wqeqwe.cir ****
.END

**** 01/20/17 07:00:28 ****** PSpice Lite (October 2012) ****** ID# 10813 ****

 ** Profile: "SCHEMATIC1-wqeqwe"  [ C:\Users\Sandipan Chakraborty\Google Drive\AIC_Lab\filter-pspicefiles\schematic1\wqeqwe.sim ] 


 ****     SMALL SIGNAL BIAS SOLUTION       TEMPERATURE =   27.000 DEG C


******************************************************************************



 NODE   VOLTAGE     NODE   VOLTAGE     NODE   VOLTAGE     NODE   VOLTAGE


(N00131)    0.0000 (N00136)    0.0000 




    VOLTAGE SOURCE CURRENTS
    NAME         CURRENT

    V_V1         0.000E+00

    TOTAL POWER DISSIPATION   0.00E+00  WATTS



          JOB CONCLUDED

**** 01/20/17 07:00:28 ****** PSpice Lite (October 2012) ****** ID# 10813 ****

 ** Profile: "SCHEMATIC1-wqeqwe"  [ C:\Users\Sandipan Chakraborty\Google Drive\AIC_Lab\filter-pspicefiles\schematic1\wqeqwe.sim ] 


 ****     JOB STATISTICS SUMMARY


******************************************************************************



  Total job time (using Solver 1)   =        0.00
