
**** 01/14/17 10:45:08 ****** PSpice Lite (October 2012) ****** ID# 10813 ****

 ** Profile: "SCHEMATIC1-qw"  [ C:\Users\Sandipan Chakraborty\Google Drive\AIC_Lab\filter_diff-pspicefiles\schematic1\qw.sim ] 


 ****     CIRCUIT DESCRIPTION


******************************************************************************




** Creating circuit file "qw.cir" 
** WARNING: THIS AUTOMATICALLY GENERATED FILE MAY BE OVERWRITTEN BY SUBSEQUENT SIMULATIONS

*Libraries: 
* Profile Libraries :
* Local Libraries :
* From [PSPICE NETLIST] section of C:\SPB_Data\cdssetup\OrCAD_PSpice/16.6.0/PSpice.ini file:
.lib "nomd.lib" 

*Analysis directives: 
.AC DEC 10 10 1Meg
.OPTIONS ADVCONV
.PROBE64 V(alias(*)) I(alias(*)) W(alias(*)) D(alias(*)) NOISE(alias(*)) 
.INC "..\SCHEMATIC1.net" 



**** INCLUDING SCHEMATIC1.net ****
* source FILTER_DIFF
V_V1         N00419 0 DC 0Vdc AC 5Vac 
R_R1         N00431 N00419  1Meg TC=0,0 
C_C1         0 N00431  0.01u  TC=0,0 

**** RESUMING qw.cir ****
.END

**** 01/14/17 10:45:08 ****** PSpice Lite (October 2012) ****** ID# 10813 ****

 ** Profile: "SCHEMATIC1-qw"  [ C:\Users\Sandipan Chakraborty\Google Drive\AIC_Lab\filter_diff-pspicefiles\schematic1\qw.sim ] 


 ****     SMALL SIGNAL BIAS SOLUTION       TEMPERATURE =   27.000 DEG C


******************************************************************************



 NODE   VOLTAGE     NODE   VOLTAGE     NODE   VOLTAGE     NODE   VOLTAGE


(N00419)    0.0000 (N00431)    0.0000 




    VOLTAGE SOURCE CURRENTS
    NAME         CURRENT

    V_V1         0.000E+00

    TOTAL POWER DISSIPATION   0.00E+00  WATTS



          JOB CONCLUDED

**** 01/14/17 10:45:08 ****** PSpice Lite (October 2012) ****** ID# 10813 ****

 ** Profile: "SCHEMATIC1-qw"  [ C:\Users\Sandipan Chakraborty\Google Drive\AIC_Lab\filter_diff-pspicefiles\schematic1\qw.sim ] 


 ****     JOB STATISTICS SUMMARY


******************************************************************************



  Total job time (using Solver 1)   =         .02
