
**** 03/03/17 15:14:20 ****** PSpice Lite (October 2012) ****** ID# 10813 ****

 ** Profile: "SCHEMATIC1-1234"  [ C:\Users\Sandipan Chakraborty\Google Drive\AIC_Lab\AIC-Exp-5-PSpiceFiles\SCHEMATIC1\1234.sim ] 


 ****     CIRCUIT DESCRIPTION


******************************************************************************




** Creating circuit file "1234.cir" 
** WARNING: THIS AUTOMATICALLY GENERATED FILE MAY BE OVERWRITTEN BY SUBSEQUENT SIMULATIONS

*Libraries: 
* Profile Libraries :
* Local Libraries :
* From [PSPICE NETLIST] section of C:\SPB_Data\cdssetup\OrCAD_PSpice/16.6.0/PSpice.ini file:
.lib "nomd.lib" 

*Analysis directives: 
.TRAN  0 10m 1 0.01 
.OPTIONS ADVCONV
.PROBE64 V(alias(*)) I(alias(*)) W(alias(*)) D(alias(*)) NOISE(alias(*)) 
.INC "..\SCHEMATIC1.net" 



**** INCLUDING SCHEMATIC1.net ****
* source AIC-EXP-5
X_U1         N00218 N00228 N000562 N000563 N00305 uA741
V_V1         0 N000563 12Vdc
V_V2         N000562 0 12Vdc
V_V3         N00218 0  AC 1
+SIN 0 10V 1kHz 0 0 0
V_V4         N00228 0 1Vdc

**** RESUMING 1234.cir ****
.END

**** 03/03/17 15:14:20 ****** PSpice Lite (October 2012) ****** ID# 10813 ****

 ** Profile: "SCHEMATIC1-1234"  [ C:\Users\Sandipan Chakraborty\Google Drive\AIC_Lab\AIC-Exp-5-PSpiceFiles\SCHEMATIC1\1234.sim ] 


 ****     Diode MODEL PARAMETERS


******************************************************************************




               X_U1.dx         
          IS  800.000000E-18 
          RS    1            


**** 03/03/17 15:14:20 ****** PSpice Lite (October 2012) ****** ID# 10813 ****

 ** Profile: "SCHEMATIC1-1234"  [ C:\Users\Sandipan Chakraborty\Google Drive\AIC_Lab\AIC-Exp-5-PSpiceFiles\SCHEMATIC1\1234.sim ] 


 ****     BJT MODEL PARAMETERS


******************************************************************************




               X_U1.qx         
               NPN             
       LEVEL    1            
          IS  800.000000E-18 
          BF   93.75         
          NF    1            
          BR    1            
          NR    1            
         ISS    0            
          RE    0            
          RC    0            
         CJE    0            
         VJE     .75         
         CJC    0            
         VJC     .75         
         MJC     .33         
        XCJC    1            
         CJS    0            
         VJS     .75         
          KF    0            
          AF    1            
          CN    2.42         
           D     .87         


**** 03/03/17 15:14:20 ****** PSpice Lite (October 2012) ****** ID# 10813 ****

 ** Profile: "SCHEMATIC1-1234"  [ C:\Users\Sandipan Chakraborty\Google Drive\AIC_Lab\AIC-Exp-5-PSpiceFiles\SCHEMATIC1\1234.sim ] 


 ****     INITIAL TRANSIENT SOLUTION       TEMPERATURE =   27.000 DEG C


******************************************************************************



 NODE   VOLTAGE     NODE   VOLTAGE     NODE   VOLTAGE     NODE   VOLTAGE


(N00218)    0.0000 (N00228)    1.0000 (N00305)  -11.6130 (X_U1.6)    1.5029     

(X_U1.7)  -11.6140 (X_U1.8)  -11.6140 (X_U1.9)    0.0000 (N000562)   12.0000    

(N000563)  -12.0000                   (X_U1.10)     .3603                       

(X_U1.11)   11.9200                   (X_U1.12)   12.0000                       

(X_U1.13)     .3882                   (X_U1.14)     .3603                       

(X_U1.53)   11.0000                   (X_U1.54)  -11.0000                       

(X_U1.90)    -.0159                   (X_U1.91)   40.0000                       

(X_U1.92)  -40.0000                   (X_U1.99)    0.0000                   




    VOLTAGE SOURCE CURRENTS
    NAME         CURRENT

    V_V1        -1.321E-03
    V_V2        -1.337E-03
    V_V3         1.200E-11
    V_V4        -1.603E-07
    X_U1.vb      1.503E-05
    X_U1.vc      2.261E-11
    X_U1.ve     -1.593E-05
    X_U1.vlim   -1.593E-05
    X_U1.vlp    -4.002E-11
    X_U1.vln    -3.999E-11

    TOTAL POWER DISSIPATION   3.19E-02  WATTS



          JOB CONCLUDED

**** 03/03/17 15:14:20 ****** PSpice Lite (October 2012) ****** ID# 10813 ****

 ** Profile: "SCHEMATIC1-1234"  [ C:\Users\Sandipan Chakraborty\Google Drive\AIC_Lab\AIC-Exp-5-PSpiceFiles\SCHEMATIC1\1234.sim ] 


 ****     JOB STATISTICS SUMMARY


******************************************************************************



  Total job time (using Solver 1)   =         .06
